LTspice 24.0.12 for Windows
Circuit: * C:\Users\jagan\OneDrive\Desktop\IE RX DESIGN\Draft3.asc
Start Time: Thu Apr 17 18:48:58 2025
solver = Normal
Maximum thread count: 16
tnom = 27
temp = 27
method = modified trap
WARNING: Node NC_02 is floating.
WARNING: Node N003 is floating.

WARNING: Less than two connections to node nc_01.  This node is used by m5.
.OP point found by inspection.
Total elapsed time: 0.197 seconds.

