LTspice 24.0.12 for Windows
Circuit: * C:\Users\jagan\OneDrive\Desktop\IE RX DESIGN\Draft1.asc
Start Time: Fri Mar 28 19:15:12 2025
Warning: Multiple definitions of model "2scr375p" Type: BJT
Warning: Multiple definitions of model "bc857b" Type: BJT
Warning: Multiple definitions of model "bc847c" Type: BJT
Warning: Multiple definitions of model "bc847b" Type: BJT
solver = Normal
Maximum thread count: 16
tnom = 27
temp = 27
method = modified trap
WARNING: Node N010 is floating.

WARNING: Less than two connections to node n010.  This node is used by c1.
Instance "m:u1:5": Length shorter than recommended for a level 2 MOSFET.
Instance "m:u1:6": Length shorter than recommended for a level 2 MOSFET.
Direct Newton iteration for .op point succeeded.
Changing Tseed to 9.76562e-10
Heightened Def Con from 1e-06 to 1.002e-06
Total elapsed time: 0.184 seconds.

