LTspice 24.0.12 for Windows
Circuit: * C:\Users\jagan\OneDrive\Desktop\IE RX DESIGN\FILTER DESIGN EXP.asc
Start Time: Fri Mar 28 16:14:23 2025
Warning: Multiple definitions of model "2scr375p" Type: BJT
Warning: Multiple definitions of model "bc857b" Type: BJT
Warning: Multiple definitions of model "bc847c" Type: BJT
Warning: Multiple definitions of model "bc847b" Type: BJT
Warning: Multiple definitions of model "2n2222" Type: BJT
solver = Normal
Maximum thread count: 16
tnom = 27
temp = 27
method = modified trap
Limiting rise time of source v5 to 5e-05
Limiting fall time of source v5 to 5e-05
Instance "m:u1:5": Length shorter than recommended for a level 2 MOSFET.
Instance "m:u1:6": Length shorter than recommended for a level 2 MOSFET.
Direct Newton iteration for .op point succeeded.
Total elapsed time: 0.186 seconds.

