LTspice 24.0.12 for Windows
Circuit: * C:\Users\jagan\OneDrive\Desktop\IE RX DESIGN\FILTER DESIGN.asc
Start Time: Sat Mar 29 17:28:45 2025
Warning: Multiple definitions of model "2scr375p" Type: BJT
Warning: Multiple definitions of model "bc857b" Type: BJT
Warning: Multiple definitions of model "bc847c" Type: BJT
Warning: Multiple definitions of model "bc847b" Type: BJT
solver = Normal
Maximum thread count: 16
tnom = 27
temp = 27
method = modified trap
Limiting rise time of source i1 to 5e-05
Limiting fall time of source i1 to 5e-05
Instance "m:u1:5": Length shorter than recommended for a level 2 MOSFET.
Instance "m:u1:6": Length shorter than recommended for a level 2 MOSFET.
Direct Newton iteration for .op point succeeded.
Heightened Def Con from 1.03856e-10 to 2.10386e-09
Total elapsed time: 4.336 seconds.

