LTspice 24.0.12 for Windows
Circuit: * C:\Users\jagan\OneDrive\Desktop\IE RX DESIGN\FinalRx.asc
Start Time: Mon May  5 10:43:32 2025
Warning: Multiple definitions of model "2scr375p" Type: BJT
Warning: Multiple definitions of model "bc857b" Type: BJT
Warning: Multiple definitions of model "bc847c" Type: BJT
Warning: Multiple definitions of model "bc847b" Type: BJT
Warning: Multiple definitions of model "2n2222" Type: BJT
solver = Normal
Maximum thread count: 16
tnom = 27
temp = 27
method = modified trap
Limiting rise time of source v1 to 5e-05
Limiting fall time of source v1 to 5e-05
WARNING: Node N004 is floating.
WARNING: Node P001 is floating.
WARNING: Node NC_03 is floating.
WARNING: Node NC_04 is floating.
WARNING: Node NC_06 is floating.

WARNING: Less than two connections to node nc_01.  This node is used by v4.
WARNING: Less than two connections to node n004.  This node is used by c11.
WARNING: Less than two connections to node nc_02.  This node is used by d3.
WARNING: Less than two connections to node nc_03.  This node is used by c22.
WARNING: Less than two connections to node nc_04.  This node is used by r49.
WARNING: Less than two connections to node nc_05.  This node is used by d6.
WARNING: Less than two connections to node nc_06.  This node is used by d6.
Direct Newton iteration failed to find .op point.  (Use ".option noopiter" to skip.)
Starting Gmin stepping
Gmin = 10
Gmin = 1.07374
vernier = 0.5
vernier = 0.25
vernier = 0.125
vernier = 0.0625
vernier = 0.03125
Gmin = 1.0412
vernier = 0.015625
vernier = 0.0078125
Gmin = 1.0132
vernier = 0.00390625
vernier = 0.00195312
Gmin = 1.00827
vernier = 0.00260417
vernier = 0.00130208
Gmin = 1.00515
vernier = 0.000651042
vernier = 0.000868055
vernier = 0.000434028
Gmin = 1.00434
vernier = 0.000578703
vernier = 0.000434027
Gmin = 1.00339
Gmin = 0
Gmin stepping failed

Starting source stepping with srcstepmethod=0
Source Step = 3.0303%
Source Step = 33.3333%
Source Step = 63.6364%
Source Step = 93.9394%
Source stepping succeeded in finding the operating point.

Total elapsed time: 0.956 seconds.

